&share
 wrf_core = 'ARW',
 max_dom = 1,
 start_date = '2021-01-01_00:00:00',
 end_date   = '2021-01-01_00:00:00',
 interval_seconds = 21600
 io_form_geogrid = 2,
/

&geogrid
 parent_id         =   1,
 parent_grid_ratio =   1,
 i_parent_start    =   1,
 j_parent_start    =   1,
 e_we              =  1250,
 e_sn              =  750,

 geog_data_res = 'default',
 dx = 2000,
 dy = 2000,
 map_proj = 'lambert',
 ref_lat   =  41.8,
 ref_lon   =  4.2,
 truelat1  =  60,
 truelat2  =  30,
 stand_lon = 4.2,
 geog_data_path = '/home/dargueso/GEOG_DATA_4.1/WPS_GEOG/'
/

&ungrib
 out_format = 'WPS',
 prefix = 'LSERA5',
/

&metgrid
 fg_name = 'ERA5'
 io_form_metgrid = 2,
 constants_name='Last login: Tue Dec 14 00:35:23 on ttys000
daniel@Daniels-iMac ~ % e3
Warning: No xauth data; using fake authentication data for X11 forwarding.
Welcome to Ubuntu 18.04.6 LTS (GNU/Linux 4.15.0-135-generic x86_64)

 * Documentation:  https://help.ubuntu.com
 * Management:     https://landscape.canonical.com
 * Support:        https://ubuntu.com/advantage

60 updates can be applied immediately.
To see these additional updates run: apt list --upgradable

New release '20.04.3 LTS' available.
Run 'do-release-upgrade' to upgrade to it.

*** System restart required ***
Last login: Tue Dec 14 13:46:49 2021 from 81.203.16.5
dargueso@eady3:~$ ssh mc4
Welcome to Ubuntu 20.04.3 LTS (GNU/Linux 5.4.0-88-generic x86_64)

 * Documentation:  https://help.ubuntu.com
 * Management:     https://landscape.canonical.com
 * Support:        https://ubuntu.com/advantage

39 updates can be applied immediately.
7 of these updates are standard security updates.
To see these additional updates run: apt list --upgradable


7 updates could not be installed automatically. For more details,
see /var/log/unattended-upgrades/unattended-upgrades.log
*** System restart required ***
Last login: Tue Dec 14 13:25:21 2021 from 192.168.0.233
cdargueso@mc4:~$ cd ~/WRF_runs/EPICC_PGW_WRFV4.2.2/WPS/r
-bash: cd: /home/dargueso/WRF_runs/EPICC_PGW_WRFV4.2.2/WPS/r: No such file or directory
dargueso@mc4:~$ cd ~/WRF_runs/EPICC_PGW_WRFV4.2.2/WPS/
dargueso@mc4:~/WRF_runs/EPICC_PGW_WRFV4.2.2/WPS$ ls
arch                  LSERA5:2012-12-22_00             PFILE:                  SOILERA5:2017-07-22_00
clean                 LSERA5:2012-12-22_00.nc          rd_orig.txt             SOILERA5:2018-07-22_00
compile               metgrid                          rd.txt                  SOILERA5:2019-07-22_00
compile.log           metgrid.exe                      README                  SOILERA5:2020-07-22_00
configure             metgrid.log                      SOILERA5:2010-07-22_00  ungrib
configure.wps         namelist_EPICC.wps               SOILERA5:2010-12-22_00  ungrib.exe
configure.wps.backup  namelist_soilera5_cmip6_pgw.wps  SOILERA5:2011-07-22_00  ungrib.log
geo_em.d01.nc         namelist.wps                     SOILERA5:2012-07-22_00  Untitled.ipynb
geogrid               namelist.wps.all_options         SOILERA5:2013-07-22_00  util
geogrid.exe           namelist.wps.fire                SOILERA5:2014-07-22_00  Vtable
geogrid.log           namelist.wps.global              SOILERA5:2015-07-22_00  Vtable.ERA5.SOIL1ststep
link_grib.csh         namelist.wps.nmm                 SOILERA5:2016-07-22_00
dargueso@mc4:~/WRF_runs/EPICC_PGW_WRFV4.2.2/WPS$ cd util/
dargueso@mc4:~/WRF_runs/EPICC_PGW_WRFV4.2.2/WPS/util$ ./int2nc.exe ../LSERA5\:2012-12-22_00
./int2nc.exe: error while loading shared libraries: libnetcdf.so.18: cannot open shared object file: No such file or directory
dargueso@mc4:~/WRF_runs/EPICC_PGW_WRFV4.2.2/WPS/util$ !module 
-bash: !module: event not found
dargueso@mc4:~/WRF_runs/EPICC_PGW_WRFV4.2.2/WPS/util$ module avail
-------------------------------------------------- /usr/share/modules/mc4 ---------------------------------------------------
intel/19.1  math-utils/1.0.0  netcdf-intel  nvidia-pgi/20.9  
dargueso@mc4:~/WRF_runs/EPICC_PGW_WRFV4.2.2/WPS/util$ module load intel/19.1 netcdf-intel
------------------------------
Carregam el mòdul del compilador intel 19.1. Per llevar-lo feu module unload nom_fitxer.
Executeu-lo amb les comandes ifort, icc...
------------------------------
------------------------------
Carregam el mòdul NetCDF 4.7.4. Per llevar-lo feu module unload nom_fitxer.
El directori on es troba el programa és /opt/wrf_install_intel/wrf_libs_intel/.
------------------------------
ATENCIÓ: NETCDF ESTÀ COMPILAT AMB ELS COMPILADORS D'INTEL I NECESSITAREU TAMBÉ CARREGAR EL SEU MÒDUL
$ module load intel/19.1
------------------------------
dargueso@mc4:~/WRF_runs/EPICC_PGW_WRFV4.2.2/WPS/util$ ./int2nc.exe ../LSERA5\:2012-12-22_00
 OPENING FILE: ../LSERA5:2012-12-22_00
 Reading Field, Level: LANDSEA, 200100
 SUCCESSFUL COMPLETION OF PROGRAM INT2NC, ../LSERA5:2012-12-22_00.nc WRITTEN.
dargueso@mc4:~/WRF_runs/EPICC_PGW_WRFV4.2.2/WPS/util$ cd ..
dargueso@mc4:~/WRF_runs/EPICC_PGW_WRFV4.2.2/WPS$ ncview LSERA5\:2012-12-22_00.nc 
Ncview 2.1.8 David W. Pierce  8 March 2017
http://meteora.ucsd.edu:80/~pierce/ncview_home_page.html
Copyright (C) 1993 through 2015, David W. Pierce
Ncview comes with ABSOLUTELY NO WARRANTY; for details type `ncview -w'.
This is free software licensed under the Gnu General Public License version 3; type `ncview -c' for redistribution details.

Error: Can't open display: 
dargueso@mc4:~/WRF_runs/EPICC_PGW_WRFV4.2.2/WPS$ ls
arch                  LSERA5:2012-12-22_00             PFILE:                  SOILERA5:2017-07-22_00
clean                 LSERA5:2012-12-22_00.nc          rd_orig.txt             SOILERA5:2018-07-22_00
compile               metgrid                          rd.txt                  SOILERA5:2019-07-22_00
compile.log           metgrid.exe                      README                  SOILERA5:2020-07-22_00
configure             metgrid.log                      SOILERA5:2010-07-22_00  ungrib
configure.wps         namelist_EPICC.wps               SOILERA5:2010-12-22_00  ungrib.exe
configure.wps.backup  namelist_soilera5_cmip6_pgw.wps  SOILERA5:2011-07-22_00  ungrib.log
geo_em.d01.nc         namelist.wps                     SOILERA5:2012-07-22_00  Untitled.ipynb
geogrid               namelist.wps.all_options         SOILERA5:2013-07-22_00  util
geogrid.exe           namelist.wps.fire                SOILERA5:2014-07-22_00  Vtable
geogrid.log           namelist.wps.global              SOILERA5:2015-07-22_00  Vtable.ERA5.SOIL1ststep
link_grib.csh         namelist.wps.nmm                 SOILERA5:2016-07-22_00
dargueso@mc4:~/WRF_runs/EPICC_PGW_WRFV4.2.2/WPS$ cd ../
dargueso@mc4:~/WRF_runs/EPICC_PGW_WRFV4.2.2$ cd ..
dargueso@mc4:~/WRF_runs$ cd EPICC_WRFV4.2.2/
dargueso@mc4:~/WRF_runs/EPICC_WRFV4.2.2$ ls
WPS  WRF
dargueso@mc4:~/WRF_runs/EPICC_WRFV4.2.2$ cd WPS
dargueso@mc4:~/WRF_runs/EPICC_WRFV4.2.2/WPS$ ls
arch                  ERA5:2021-01-01_06     GRIBFILE.AAA          namelist_soilera5_cmip6_pgw.wps  ungrib.exe
clean                 ERA5:2021-01-01_06.nc  GRIBFILE.AAB          namelist.wps                     ungrib.log
compile               ERA5:2021-01-01_12     link_grib.csh         namelist.wps.all_options         util
compile.log           ERA5:2021-01-01_18     LSERA5:2012-12-22_00  namelist.wps.fire                Vtable
configure             geo_em.d01.nc          metgrid               namelist.wps.global              Vtable.ERA5.SOIL1ststep
configure.wps         geogrid                metgrid.exe           namelist.wps.nmm
configure.wps.backup  geogrid.exe            metgrid.log           README
ERA5:2021-01-01_00    geogrid.log            namelist_EPICC.wps    ungrib
dargueso@mc4:~/WRF_runs/EPICC_WRFV4.2.2/WPS$ cd ..
dargueso@mc4:~/WRF_runs/EPICC_WRFV4.2.2$ cd ..
dargueso@mc4:~/WRF_runs$ cp -R EPICC_WRFV4.2.2 EPICC_WRFV4.2.2_LSERA5
dargueso@mc4:~/WRF_runs$ cd EPICC_WRFV4.2.2
dargueso@mc4:~/WRF_runs/EPICC_WRFV4.2.2$ ls
WPS  WRF
dargueso@mc4:~/WRF_runs/EPICC_WRFV4.2.2$ cd WPS
dargueso@mc4:~/WRF_runs/EPICC_WRFV4.2.2/WPS$ ls
arch                  ERA5:2021-01-01_06     GRIBFILE.AAA          namelist_soilera5_cmip6_pgw.wps  ungrib.exe
clean                 ERA5:2021-01-01_06.nc  GRIBFILE.AAB          namelist.wps                     ungrib.log
compile               ERA5:2021-01-01_12     link_grib.csh         namelist.wps.all_options         util
compile.log           ERA5:2021-01-01_18     LSERA5:2012-12-22_00  namelist.wps.fire                Vtable
configure             geo_em.d01.nc          metgrid               namelist.wps.global              Vtable.ERA5.SOIL1ststep
configure.wps         geogrid                metgrid.exe           namelist.wps.nmm
configure.wps.backup  geogrid.exe            metgrid.log           README
ERA5:2021-01-01_00    geogrid.log            namelist_EPICC.wps    ungrib
dargueso@mc4:~/WRF_runs/EPICC_WRFV4.2.2/WPS$ rm -fr ERA5\:2021-01-01_*
dargueso@mc4:~/WRF_runs/EPICC_WRFV4.2.2/WPS$ rm -fr GRIBFILE.AA
dargueso@mc4:~/WRF_runs/EPICC_WRFV4.2.2/WPS$ rm -fr LSERA5\:2012-12-22_00 
dargueso@mc4:~/WRF_runs/EPICC_WRFV4.2.2/WPS$ ls
arch                  geo_em.d01.nc  metgrid                          namelist.wps.fire    util
clean                 geogrid        metgrid.exe                      namelist.wps.global  Vtable
compile               geogrid.exe    metgrid.log                      namelist.wps.nmm     Vtable.ERA5.SOIL1ststep
compile.log           geogrid.log    namelist_EPICC.wps               README
configure             GRIBFILE.AAA   namelist_soilera5_cmip6_pgw.wps  ungrib
configure.wps         GRIBFILE.AAB   namelist.wps                     ungrib.exe
configure.wps.backup  link_grib.csh  namelist.wps.all_options         ungrib.log
dargueso@mc4:~/WRF_runs/EPICC_WRFV4.2.2/WPS$ cd ../../EPICC_WRFV4.2.2_LSERA5/WPS
dargueso@mc4:~/WRF_runs/EPICC_WRFV4.2.2_LSERA5/WPS$ ls
arch                  ERA5:2021-01-01_06     GRIBFILE.AAA          namelist_soilera5_cmip6_pgw.wps  ungrib.exe
clean                 ERA5:2021-01-01_06.nc  GRIBFILE.AAB          namelist.wps                     ungrib.log
compile               ERA5:2021-01-01_12     link_grib.csh         namelist.wps.all_options         util
compile.log           ERA5:2021-01-01_18     LSERA5:2012-12-22_00  namelist.wps.fire                Vtable
configure             geo_em.d01.nc          metgrid               namelist.wps.global              Vtable.ERA5.SOIL1ststep
configure.wps         geogrid                metgrid.exe           namelist.wps.nmm
configure.wps.backup  geogrid.exe            metgrid.log           README
ERA5:2021-01-01_00    geogrid.log            namelist_EPICC.wps    ungrib
dargueso@mc4:~/WRF_runs/EPICC_WRFV4.2.2_LSERA5/WPS$ ./link_grib.csh /vg6/dargueso-NO-BKUP/
BDY_DATA/                       EHF_EOBS/                       OBS_DATA/
CMIP5/                          GEOG_DATA/                      postprocessed/
CMIP6/                          GEOG_DATA_4.1/                  WRF_OUT/
EHF_CORDEX/                     Jakarta_KL/                     wrfout_d01_2015-10-22_00:00:00
dargueso@mc4:~/WRF_runs/EPICC_WRFV4.2.2_LSERA5/WPS$ ./link_grib.csh /vg6/dargueso-NO-BKUP/BDY_DATA/
CMIP5_ANOMALY/  CMIP6_ANOMALY/  ERA5/           ERA5_CMIP6anom/ Figures/        OCEAN_bdy/      ORCA_CMIP5anom/
dargueso@mc4:~/WRF_runs/EPICC_WRFV4.2.2_LSERA5/WPS$ ./link_grib.csh /vg6/dargueso-NO-BKUP/BDY_DATA/ERA5
ERA5/           ERA5_CMIP6anom/ 
dargueso@mc4:~/WRF_runs/EPICC_WRFV4.2.2_LSERA5/WPS$ ./link_grib.csh /vg6/dargueso-NO-BKUP/BDY_DATA/ERA5/
Display all 181 possibilities? (y or n)
era5_daily_pl_20210101.grb      era5land_hourly_prec_201312.nc  era5land_hourly_prec_201901.nc
era5_daily_sfc_20210101.grb     era5land_hourly_prec_201401.nc  era5land_hourly_prec_201902.nc
era5land_daily_sfc_20200101.nc  era5land_hourly_prec_201402.nc  era5land_hourly_prec_201903.nc
era5land_daily_sfc_20200102.nc  era5land_hourly_prec_201403.nc  era5land_hourly_prec_201904.nc
era5land_daily_sfc_20200103.nc  era5land_hourly_prec_201404.nc  era5land_hourly_prec_201905.nc
era5land_daily_sfc_20200104.nc  era5land_hourly_prec_201405.nc  era5land_hourly_prec_201906.nc
era5land_daily_sfc_20200105.nc  era5land_hourly_prec_201406.nc  era5land_hourly_prec_201907.nc
era5land_daily_sfc_20200106.nc  era5land_hourly_prec_201407.nc  era5land_hourly_prec_201908.nc
era5land_daily_sfc_20200107.nc  era5land_hourly_prec_201408.nc  era5land_hourly_prec_201909.nc
era5land_daily_sfc_20200108.nc  era5land_hourly_prec_201409.nc  era5land_hourly_prec_201910.nc
era5land_daily_sfc_20200109.nc  era5land_hourly_prec_201410.nc  era5land_hourly_prec_201911.nc
era5land_daily_sfc_20200110.nc  era5land_hourly_prec_201411.nc  era5land_hourly_prec_201912.nc
era5land_daily_sfc_20200111.nc  era5land_hourly_prec_201412.nc  era5land_hourly_prec_202001.nc
era5land_daily_sfc_20200112.nc  era5land_hourly_prec_201501.nc  era5land_hourly_prec_202002.nc
era5land_hourly_prec_201001.nc  era5land_hourly_prec_201502.nc  era5land_hourly_prec_202003.nc
era5land_hourly_prec_201002.nc  era5land_hourly_prec_201503.nc  era5land_hourly_prec_202004.nc
era5land_hourly_prec_201003.nc  era5land_hourly_prec_201504.nc  era5land_hourly_prec_202005.nc
era5land_hourly_prec_201004.nc  era5land_hourly_prec_201505.nc  era5land_hourly_prec_202006.nc
era5land_hourly_prec_201005.nc  era5land_hourly_prec_201506.nc  era5land_hourly_prec_202007.nc
era5land_hourly_prec_201006.nc  era5land_hourly_prec_201507.nc  era5land_hourly_prec_202008.nc
era5land_hourly_prec_201007.nc  era5land_hourly_prec_201508.nc  era5land_hourly_prec_202009.nc
era5land_hourly_prec_201008.nc  era5land_hourly_prec_201509.nc  era5land_hourly_prec_202010.nc
era5land_hourly_prec_201009.nc  era5land_hourly_prec_201510.nc  era5land_hourly_prec_202011.nc
era5land_hourly_prec_201010.nc  era5land_hourly_prec_201511.nc  era5land_hourly_prec_202012.nc
era5land_hourly_prec_201011.nc  era5land_hourly_prec_201512.nc  era5land_hourly_prec_202101.nc
era5land_hourly_prec_201012.nc  era5land_hourly_prec_201601.nc  era5land_hourly_prec_202102.nc
era5land_hourly_prec_201101.nc  era5land_hourly_prec_201602.nc  era5land_hourly_prec_202103.nc
era5land_hourly_prec_201102.nc  era5land_hourly_prec_201603.nc  era5land_hourly_prec_202104.nc
era5land_hourly_prec_201103.nc  era5land_hourly_prec_201604.nc  era5land_hourly_prec_202105.nc
era5land_hourly_prec_201104.nc  era5land_hourly_prec_201605.nc  era5land_hourly_prec_202106.nc
era5land_hourly_prec_201105.nc  era5land_hourly_prec_201606.nc  era5land_hourly_prec_202107.nc
era5land_hourly_prec_201106.nc  era5land_hourly_prec_201607.nc  era5land_hourly_prec_202108.nc
era5land_hourly_prec_201107.nc  era5land_hourly_prec_201608.nc  era5land_hourly_prec_202109.nc
era5land_hourly_prec_201108.nc  era5land_hourly_prec_201609.nc  era5land_hourly_prec_202110.nc
era5land_hourly_prec_201109.nc  era5land_hourly_prec_201610.nc  ERA5_netcdf/
era5land_hourly_prec_201110.nc  era5land_hourly_prec_201611.nc  ERALS.grb
era5land_hourly_prec_201111.nc  era5land_hourly_prec_201612.nc  Get_ERA5_ECMWF_plevs.py
era5land_hourly_prec_201112.nc  era5land_hourly_prec_201701.nc  Get_ERA5_ECMWF_plevs.py~
era5land_hourly_prec_201201.nc  era5land_hourly_prec_201702.nc  Get_ERA5_ECMWF_psl.py
era5land_hourly_prec_201202.nc  era5land_hourly_prec_201703.nc  Get_ERA5_ECMWF_sfc.py
era5land_hourly_prec_201203.nc  era5land_hourly_prec_201704.nc  .Get_ERA5_ECMWF_sfc.py.swp
era5land_hourly_prec_201204.nc  era5land_hourly_prec_201705.nc  Get_ERA5_ECMWF_testMcardell.py
era5land_hourly_prec_201205.nc  era5land_hourly_prec_201706.nc  Get_ERA5_ECMWF_UV10m.py
era5land_hourly_prec_201206.nc  era5land_hourly_prec_201707.nc  Get_ERA5Land_ECMWF_prec.py
era5land_hourly_prec_201207.nc  era5land_hourly_prec_201708.nc  Get_ERA5Land_ECMWF.py
era5land_hourly_prec_201208.nc  era5land_hourly_prec_201709.nc  grib2netcdf.py
era5land_hourly_prec_201209.nc  era5land_hourly_prec_201710.nc  grib2netcdf_UV10m.py
era5land_hourly_prec_201210.nc  era5land_hourly_prec_201711.nc  LSERA2.grb
era5land_hourly_prec_201211.nc  era5land_hourly_prec_201712.nc  LSERA3.gbr
era5land_hourly_prec_201212.nc  era5land_hourly_prec_201801.nc  LSERA4.grb
era5land_hourly_prec_201301.nc  era5land_hourly_prec_201802.nc  LSERA5_2012-12-22_00.grb
era5land_hourly_prec_201302.nc  era5land_hourly_prec_201803.nc  LSERA5_2012-12-22_00.nc
era5land_hourly_prec_201303.nc  era5land_hourly_prec_201804.nc  LSERA5.grb
era5land_hourly_prec_201304.nc  era5land_hourly_prec_201805.nc  LSERA6.grb
era5land_hourly_prec_201305.nc  era5land_hourly_prec_201806.nc  LSERA.grb
era5land_hourly_prec_201306.nc  era5land_hourly_prec_201807.nc  newERA5/
era5land_hourly_prec_201307.nc  era5land_hourly_prec_201808.nc  SOILCLIM.grb
era5land_hourly_prec_201308.nc  era5land_hourly_prec_201809.nc  WRF-boundary/
era5land_hourly_prec_201309.nc  era5land_hourly_prec_201810.nc  WRF-Intermediate/
era5land_hourly_prec_201310.nc  era5land_hourly_prec_201811.nc  
era5land_hourly_prec_201311.nc  era5land_hourly_prec_201812.nc  
dargueso@mc4:~/WRF_runs/EPICC_WRFV4.2.2_LSERA5/WPS$ ./link_grib.csh /vg6/dargueso-NO-BKUP/BDY_DATA/ERA5/LSERA5_2012-12-22_00. 
LSERA5_2012-12-22_00.grb  LSERA5_2012-12-22_00.nc   
dargueso@mc4:~/WRF_runs/EPICC_WRFV4.2.2_LSERA5/WPS$ ./link_grib.csh /vg6/dargueso-NO-BKUP/BDY_DATA/ERA5/LSERA5_2012-12-22_00.grb 
dargueso@mc4:~/WRF_runs/EPICC_WRFV4.2.2_LSERA5/WPS$ ls
arch                  ERA5:2021-01-01_06.nc  LSERA5:2012-12-22_00             namelist.wps.global
clean                 ERA5:2021-01-01_12     metgrid                          namelist.wps.nmm
compile               ERA5:2021-01-01_18     metgrid.exe                      README
compile.log           geo_em.d01.nc          metgrid.log                      ungrib
configure             geogrid                namelist_EPICC.wps               ungrib.exe
configure.wps         geogrid.exe            namelist_soilera5_cmip6_pgw.wps  ungrib.log
configure.wps.backup  geogrid.log            namelist.wps                     util
ERA5:2021-01-01_00    GRIBFILE.AAA           namelist.wps.all_options         Vtable
ERA5:2021-01-01_06    link_grib.csh          namelist.wps.fire                Vtable.ERA5.SOIL1ststep
dargueso@mc4:~/WRF_runs/EPICC_WRFV4.2.2_LSERA5/WPS$ cd util/
dargueso@mc4:~/WRF_runs/EPICC_WRFV4.2.2_LSERA5/WPS/util$ ls
avg_tsfc.exe      gfs.ncl          Makefile        plotgrids.ncl        src
calc_ecmwf_p.exe  gfs_old.ncl      mod_levs.exe    plotgrids_new.ncl    vertical_grid_38_20m_G3.txt
g1print.exe       height_ukmo.exe  plotfmt.ncl     plotgrids_old.ncl    vertical_grid_50_20m_63km.txt
g2print.exe       int2nc.exe       plotfmt_nc.ncl  rd_intermediate.exe  vertical_grid_70_20m_80km.txt
dargueso@mc4:~/WRF_runs/EPICC_WRFV4.2.2_LSERA5/WPS/util$ cd ..
dargueso@mc4:~/WRF_runs/EPICC_WRFV4.2.2_LSERA5/WPS$ cd ungrib/
dargueso@mc4:~/WRF_runs/EPICC_WRFV4.2.2_LSERA5/WPS/ungrib$ ls
g1print.exe  g2print.exe  Makefile  README_LIBS  src  ungrib.exe  Variable_Tables
dargueso@mc4:~/WRF_runs/EPICC_WRFV4.2.2_LSERA5/WPS/ungrib$ cd Variable_Tables/
dargueso@mc4:~/WRF_runs/EPICC_WRFV4.2.2_LSERA5/WPS/ungrib/Variable_Tables$ ls
README              Vtable.AWIP            Vtable.GFSENS   Vtable.NOGAPS                 Vtable.SST
Vtable.AFWAICE      Vtable.CFSR            Vtable.GODAS    Vtable.NOGAPS_needs_GFS_soil  Vtable.TCRP
Vtable.AGRMETSNOW   Vtable.CFSR_mean       Vtable.GSM      Vtable.raphrrr                Vtable.UKMO_ENDGame
Vtable.AGRMETSOIL   Vtable.ECMWF           Vtable.JMAGSM   Vtable.RAP.hybrid.ncep        Vtable.UKMO_LANDSEA
Vtable.AGRMETSOIL2  Vtable.ECMWF_sigma     Vtable.NAM      Vtable.RAP.pressure.ncep      Vtable.UKMO_no_heights
Vtable.AGRWRF       Vtable.ERA-interim.ml  Vtable.NARR     Vtable.RAP.sigma.gsd
Vtable.ARWp.UPP     Vtable.ERA-interim.pl  Vtable.NavySST  Vtable.RUCb
Vtable.ARW.UPP      Vtable.GFDL            Vtable.NCEP2    Vtable.RUCp
Vtable.AVN0P5WRF    Vtable.GFS             Vtable.NNRP     Vtable.SREF
dargueso@mc4:~/WRF_runs/EPICC_WRFV4.2.2_LSERA5/WPS/ungrib/Variable_Tables$ cd ..
dargueso@mc4:~/WRF_runs/EPICC_WRFV4.2.2_LSERA5/WPS/ungrib$ cp /vg6/dargueso-NO-BKUP/BDY_DATA/ERA5_CMIP6anom/scripts/
Calculate_CMIP6_Annual_cycle-CC_change-regrid_ERA5.py  outputInter.f90
cmip6era5pgw.yml                                       outputInter.so
constants.py                                           outputInter_soil.f90
Create_CMIP6_AnnualCycleChange_ENSMEAN.py              outputInter_soil.so
era5_grid                                              __pycache__/
fortranfile.py                                         README.md
Get_CMIP6_Monthly_PGW_NCI.py                           SearchCMIPData_NCI.py
Get_CMIP6_Monthly_PGW_STORMSERVERS.sh                  SearchLocations_intersection_cmip6_mon.txt
Get_ERA5_ECMWF_plevs.py                                Vtable.ERA5.LANDSEA
Get_ERA5_ECMWF_sfc.py                                  Vtable.ERA5.SOIL1ststep
Interpolate_CMIP6_Annual_cycle-CC_pinterp.py           wrf_variables.py
module_initialize_real.F                               write_intermediate_ERA5_CMIP6anom.py
module_initialize_real.F_modified                      write_intermediate_ERA5_CMIP6anom_SOILCLIM.py
namelist_soilera5_cmip6_pgw.wps                        
dargueso@mc4:~/WRF_runs/EPICC_WRFV4.2.2_LSERA5/WPS/ungrib$ cp /vg6/dargueso-NO-BKUP/BDY_DATA/ERA5_CMIP6anom/scripts/Vtable.ERA5.LANDSEA .
dargueso@mc4:~/WRF_runs/EPICC_WRFV4.2.2_LSERA5/WPS/ungrib$ ls
g1print.exe  g2print.exe  Makefile  README_LIBS  src  ungrib.exe  Variable_Tables  Vtable.ERA5.LANDSEA
dargueso@mc4:~/WRF_runs/EPICC_WRFV4.2.2_LSERA5/WPS/ungrib$ mv Vtable.ERA5.LANDSEA Variable_Tables/
dargueso@mc4:~/WRF_runs/EPICC_WRFV4.2.2_LSERA5/WPS/ungrib$ cd ..
dargueso@mc4:~/WRF_runs/EPICC_WRFV4.2.2_LSERA5/WPS$ ls
arch                  ERA5:2021-01-01_06.nc  LSERA5:2012-12-22_00             namelist.wps.global
clean                 ERA5:2021-01-01_12     metgrid                          namelist.wps.nmm
compile               ERA5:2021-01-01_18     metgrid.exe                      README
compile.log           geo_em.d01.nc          metgrid.log                      ungrib
configure             geogrid                namelist_EPICC.wps               ungrib.exe
configure.wps         geogrid.exe            namelist_soilera5_cmip6_pgw.wps  ungrib.log
configure.wps.backup  geogrid.log            namelist.wps                     util
ERA5:2021-01-01_00    GRIBFILE.AAA           namelist.wps.all_options         Vtable
ERA5:2021-01-01_06    link_grib.csh          namelist.wps.fire                Vtable.ERA5.SOIL1ststep
dargueso@mc4:~/WRF_runs/EPICC_WRFV4.2.2_LSERA5/WPS$ ls -ltrh
total 3,3G
-rw-r--r-- 1 dargueso models 562M dic 14 14:13 ERA5:2021-01-01_06.nc
-rw-r--r-- 1 dargueso models 562M dic 14 14:13 ERA5:2021-01-01_00
-rw-r--r-- 1 dargueso models 562M dic 14 14:13 ERA5:2021-01-01_06
-rw-r--r-- 1 dargueso models 562M dic 14 14:13 ERA5:2021-01-01_12
-rwxr-xr-x 1 dargueso models  705 dic 14 14:13 namelist.wps
-rw-r--r-- 1 dargueso models 562M dic 14 14:13 ERA5:2021-01-01_18
lrwxrwxrwx 1 dargueso models   35 dic 14 14:13 Vtable -> ungrib/Variable_Tables/Vtable.ECMWF
lrwxrwxrwx 1 dargueso models   21 dic 14 14:13 ungrib.exe -> ungrib/src/ungrib.exe
lrwxrwxrwx 1 dargueso models   23 dic 14 14:13 metgrid.exe -> metgrid/src/metgrid.exe
lrwxrwxrwx 1 dargueso models   23 dic 14 14:13 geogrid.exe -> geogrid/src/geogrid.exe
-rwxr-xr-x 1 dargueso models 2,8M dic 14 14:13 LSERA5:2012-12-22_00
-rwxr-xr-x 1 dargueso models 1,4K dic 14 14:13 Vtable.ERA5.SOIL1ststep
-rwxr-xr-x 1 dargueso models 6,2K dic 14 14:13 README
-rwxr-xr-x 1 dargueso models 1,8K dic 14 14:13 clean
-rwxr-xr-x 1 dargueso models 4,7K dic 14 14:13 compile
-rwxr-xr-x 1 dargueso models 102K dic 14 14:13 compile.log
-rwxr-xr-x 1 dargueso models 3,3K dic 14 14:13 configure.wps
-rwxr-xr-x 1 dargueso models  13K dic 14 14:13 configure
-rwxr-xr-x 1 dargueso models 3,3K dic 14 14:13 configure.wps.backup
-rwxr-xr-x 1 dargueso models 1,3K dic 14 14:13 link_grib.csh
-rwxr-xr-x 1 dargueso models  13K dic 14 14:13 geogrid.log
-rwxr-xr-x 1 dargueso models 479M dic 14 14:13 geo_em.d01.nc
-rwxr-xr-x 1 dargueso models 2,7K dic 14 14:13 namelist.wps.all_options
-rwxr-xr-x 1 dargueso models 165K dic 14 14:13 metgrid.log
-rwxr-xr-x 1 dargueso models  654 dic 14 14:13 namelist.wps.nmm
-rwxr-xr-x 1 dargueso models 1,6K dic 14 14:13 namelist.wps.global
-rwxr-xr-x 1 dargueso models 2,1K dic 14 14:13 namelist.wps.fire
-rwxr-xr-x 1 dargueso models  94K dic 14 14:13 ungrib.log
-rwxr-xr-x 1 dargueso models  720 dic 14 14:13 namelist_soilera5_cmip6_pgw.wps
-rwxr-xr-x 1 dargueso models  727 dic 14 14:13 namelist_EPICC.wps
drwxr-xr-x 2 dargueso models 4,0K dic 14 14:13 arch
drwxr-xr-x 4 dargueso models 4,0K dic 14 14:13 geogrid
drwxr-xr-x 3 dargueso models 4,0K dic 14 14:13 metgrid
drwxr-xr-x 3 dargueso models 4,0K dic 14 14:13 util
lrwxrwxrwx 1 dargueso models   60 dic 14 14:19 GRIBFILE.AAA -> /vg6/dargueso-NO-BKUP/BDY_DATA/ERA5/LSERA5_2012-12-22_00.grb
drwxr-xr-x 4 dargueso models 4,0K dic 14 14:20 ungrib
dargueso@mc4:~/WRF_runs/EPICC_WRFV4.2.2_LSERA5/WPS$ rm Vtable
dargueso@mc4:~/WRF_runs/EPICC_WRFV4.2.2_LSERA5/WPS$ ln -sf ungrib/Variable_Tables/Vtable.
Vtable.AFWAICE                Vtable.ECMWF                  Vtable.NAM                    Vtable.RUCb
Vtable.AGRMETSNOW             Vtable.ECMWF_sigma            Vtable.NARR                   Vtable.RUCp
Vtable.AGRMETSOIL             Vtable.ERA5.LANDSEA           Vtable.NavySST                Vtable.SREF
Vtable.AGRMETSOIL2            Vtable.ERA-interim.ml         Vtable.NCEP2                  Vtable.SST
Vtable.AGRWRF                 Vtable.ERA-interim.pl         Vtable.NNRP                   Vtable.TCRP
Vtable.ARWp.UPP               Vtable.GFDL                   Vtable.NOGAPS                 Vtable.UKMO_ENDGame
Vtable.ARW.UPP                Vtable.GFS                    Vtable.NOGAPS_needs_GFS_soil  Vtable.UKMO_LANDSEA
Vtable.AVN0P5WRF              Vtable.GFSENS                 Vtable.raphrrr                Vtable.UKMO_no_heights
Vtable.AWIP                   Vtable.GODAS                  Vtable.RAP.hybrid.ncep        
Vtable.CFSR                   Vtable.GSM                    Vtable.RAP.pressure.ncep      
Vtable.CFSR_mean              Vtable.JMAGSM                 Vtable.RAP.sigma.gsd          
dargueso@mc4:~/WRF_runs/EPICC_WRFV4.2.2_LSERA5/WPS$ ln -sf ungrib/Variable_Tables/Vtable.ERA5.LANDSEA Vtable
dargueso@mc4:~/WRF_runs/EPICC_WRFV4.2.2_LSERA5/WPS$ vi namelist.wps
dargueso@mc4:~/WRF_runs/EPICC_WRFV4.2.2_LSERA5/WPS$ ./ungrib.exe 
 *** Starting program ungrib.exe ***
Start_date =  2021-01-01_00:00:00 ,      End_date = 2021-01-01_18:00:00
output format is WPS
Path to intermediate files is ./

###############################################################################

Inventory for date = 2021-01-01 00:00:00

PRES   LANDSEA 
-------------------------------------------------------------------------------
2001.0  X      
-------------------------------------------------------------------------------
 Name of source model =>ECMWF                           

###############################################################################

Inventory for date = 2021-01-01 00:00:00

PRES   LANDSEA 
-------------------------------------------------------------------------------
2001.0  X      
-------------------------------------------------------------------------------
Subroutine DATINT: Interpolating 3-d files to fill in any missing data...
Looking for data at time 2021-01-01_00
Found file:      LSERA5:2021-01-01_00
Looking for data at time 2021-01-01_06
ERROR: Data not found: 2021-01-01_06:00:00.0000
dargueso@mc4:~/WRF_runs/EPICC_WRFV4.2.2_LSERA5/WPS$ vi namelist.wps
dargueso@mc4:~/WRF_runs/EPICC_WRFV4.2.2_LSERA5/WPS$ ./ungrib.exe 
 *** Starting program ungrib.exe ***
Start_date =  2021-01-01_00:00:00 ,      End_date = 2021-01-01_00:00:00
output format is WPS
Path to intermediate files is ./

###############################################################################

Inventory for date = 2021-01-01 00:00:00

PRES   LANDSEA 
-------------------------------------------------------------------------------
2001.0  X      
-------------------------------------------------------------------------------
 Name of source model =>ECMWF                           

###############################################################################

Inventory for date = 2021-01-01 00:00:00

PRES   LANDSEA 
-------------------------------------------------------------------------------
2001.0  X      
-------------------------------------------------------------------------------
Subroutine DATINT: Interpolating 3-d files to fill in any missing data...
Looking for data at time 2021-01-01_00
Found file:      LSERA5:2021-01-01_00
End Subroutine DATINT.

**********
Deleting temporary files created by ungrib...
**********

Deleting file:  ./PFILE:2021-01-01_00

**********
Done deleting temporary files.
**********

!!!!!!!!!!!!!!!!!!!!!!!!!!!!!!!!!!!!!!!
!  Successful completion of ungrib.   !
!!!!!!!!!!!!!!!!!!!!!!!!!!!!!!!!!!!!!!!
dargueso@mc4:~/WRF_runs/EPICC_WRFV4.2.2_LSERA5/WPS$ ls
arch                  ERA5:2021-01-01_06     GRIBFILE.AAA          namelist_soilera5_cmip6_pgw.wps  ungrib.exe
clean                 ERA5:2021-01-01_06.nc  link_grib.csh         namelist.wps                     ungrib.log
compile               ERA5:2021-01-01_12     LSERA5:2012-12-22_00  namelist.wps.all_options         util
compile.log           ERA5:2021-01-01_18     LSERA5:2021-01-01_00  namelist.wps.fire                Vtable
configure             geo_em.d01.nc          metgrid               namelist.wps.global              Vtable.ERA5.SOIL1ststep
configure.wps         geogrid                metgrid.exe           namelist.wps.nmm
configure.wps.backup  geogrid.exe            metgrid.log           README
ERA5:2021-01-01_00    geogrid.log            namelist_EPICC.wps    ungrib
dargueso@mc4:~/WRF_runs/EPICC_WRFV4.2.2_LSERA5/WPS$ cp /vg6/dargueso-NO-BKUP/BDY_DATA/ERA5/era5*grb .
dargueso@mc4:~/WRF_runs/EPICC_WRFV4.2.2_LSERA5/WPS$ history
   56  ls -ltrh
   57  ls -ltrh
   58  cd ..
   59  ls -ltrh
   60  ls -ltrh